/*--------------------------------*- C++ -*----------------------------------*\
  =========                 |
  \\      /  F ield         | OpenFOAM: The Open Source CFD Toolbox
   \\    /   O peration     | Website:  https://openfoam.org
    \\  /    A nd           | Version:  6
     \\/     M anipulation  |
\*---------------------------------------------------------------------------*/
FoamFile
{
    version     2.0;
    format      binary;
    class       volScalarField;
    location    "0";
    object      k;
}
// * * * * * * * * * * * * * * * * * * * * * * * * * * * * * * * * * * * * * //

dimensions      [0 2 -2 0 0 0 0];

internalField   uniform 0.24;

boundaryField
{
    frontAndBack
    {
        type            slip;
    }
    outlet
    {
        type            inletOutlet;
        inletValue      uniform 0.24;
        value           uniform 0.24;
    }
    inlet
    {
        type            fixedValue;
        value           uniform 0.24;
    }
    lowerWall
    {
        type            kqRWallFunction;
        value           uniform 0.24;
    }
    upperWall
    {
        type            slip;
    }
    altro
    {
        type            kqRWallFunction;
        value           uniform 0.24;
    }
    lato
    {
        type            kqRWallFunction;
        value           uniform 0.24;
    }
    tetto
    {
        type            kqRWallFunction;
        value           uniform 0.24;
    }
}


// ************************************************************************* //
